data/master.dss
Clear
New Circuit.tyn_substation


Edit "Vsource.source" bus1=tyn201 basekv=12.47 pu=1.00000001989 angle=0.000000 Z1=[0.141506, 1.399508] Z0=[0.054425, 1.088506]
New "Vsource.tyn202" bus1=tyn202 basekv=12.47 pu=1.00000001989 angle=0.000000 Z1=[0.141506, 1.399508] Z0=[0.054425, 1.088506]
New "Vsource.tyn203" bus1=tyn203 basekv=12.47 pu=1.00000001989 angle=0.000000 Z1=[0.141506, 1.383958] Z0=[0.054425, 1.072956]

New "WireData.acsr_1/0_6/1" Rac=0.551778 GMRac=0.134620 diam=1.010920 normamps=255.000000 emergamps=255.000000 Runits=km GMRunits=cm radunits=cm
New "WireData.acsr_2/0_6/1" Rac=0.438688 GMRac=0.154940 diam=1.135380 normamps=290.000000 emergamps=290.000000 Runits=km GMRunits=cm radunits=cm
New "WireData.al_#2_7str" Rac=0.876133 GMRac=0.269240 diam=0.741680 normamps=162.000000 emergamps=162.000000 Runits=km GMRunits=cm radunits=cm
New "WireData.al_1/0_7str" Rac=0.549914 GMRac=0.337820 diam=0.934720 normamps=216.000000 emergamps=216.000000 Runits=km GMRunits=cm radunits=cm
New "WireData.al_1033_37str" Rac=0.058160 GMRac=1.140460 diam=2.971800 normamps=898.000000 emergamps=898.000000 Runits=km GMRunits=cm radunits=cm
New "WireData.al_266_7str" Rac=0.217480 GMRac=0.539496 diam=1.488440 normamps=420.000000 emergamps=420.000000 Runits=km GMRunits=cm radunits=cm
New "WireData.al_336_19str" Rac=0.173363 GMRac=0.640080 diam=1.691640 normamps=448.000000 emergamps=448.000000 Runits=km GMRunits=cm radunits=cm
New "WireData.al_4/0_7str" Rac=0.274646 GMRac=0.480060 diam=1.325880 normamps=334.000000 emergamps=334.000000 Runits=km GMRunits=cm radunits=cm
New "WireData.al_556_19str" Rac=0.105633 GMRac=0.822957 diam=2.174230 normamps=613.000000 emergamps=613.000000 Runits=km GMRunits=cm radunits=cm
New "WireData.busbar" Rac=0.000001 GMRac=0.322580 diam=12.700000 normamps=2000.000000 emergamps=2000.000000 Runits=km GMRunits=cm radunits=cm
New "WireData.cu_#2_7str" Rac=0.548112 GMRac=0.269240 diam=0.741680 normamps=204.000000 emergamps=204.000000 Runits=km GMRunits=cm radunits=cm
New "WireData.cu_#4_1str" Rac=0.853826 GMRac=0.203200 diam=0.518160 normamps=149.000000 emergamps=149.000000 Runits=km GMRunits=cm radunits=cm
New "WireData.cu_#6_1str" Rac=1.354589 GMRac=0.160020 diam=0.411480 normamps=112.000000 emergamps=112.000000 Runits=km GMRunits=cm radunits=cm
New "WireData.cu_3/0_7str" Rac=0.217480 GMRac=0.426720 diam=1.178560 normamps=364.000000 emergamps=364.000000 Runits=km GMRunits=cm radunits=cm

New "LineSpacing.1ph_1" nconds=1 nphases=1 x=[0] h=[12.192] units=m
New "LineSpacing.2ph_horiz_lg_1c_2" nconds=2 nphases=2 x=[-1.395981,1.395981] h=[11.9634,11.9634] units=m
New "LineSpacing.2ph_vert_1c_2" nconds=2 nphases=2 x=[-1.395981,1.395981] h=[11.9634,11.9634] units=m
New "LineSpacing.3ph_horiz_lg_1c_3" nconds=3 nphases=3 x=[-1.39598,0,1.39598] h=[12.192,12.192,12.192] units=m
New "LineSpacing.3ph_vert_1c_3" nconds=3 nphases=3 x=[0,0,0] h=[11.683,13.1064,14.6304] units=m

New "LineCode.basic1" nphases=1 r1=0.001 r0=0.001 x1=0.001 x0=0.001 B1=0.001 B0=0.001 normamps=1 emergamps=1.25 units=mi
New "LineCode.basic2" nphases=2 r1=0.001 r0=0.001 x1=0.001 x0=0.001 B1=0.001 B0=0.001 normamps=1 emergamps=1.25 units=mi
New "LineCode.basic3" nphases=3 r1=0.001 r0=0.001 x1=0.001 x0=0.001 B1=0.001 B0=0.001 normamps=1 emergamps=1.25 units=mi
New "LineCode.ug_1/0al_1" nphases=1 r1=0.69384 r0=0.69384 x1=0.25035 x0=0.25035 B1=20.654 B0=20.654 normamps=150.000000 units=km
New "LineCode.ug_1/0al_3" nphases=3 r1=0.56004 r0=0.96145 x1=0.24494 x0=0.26116 B1=25.968 B0=10.026 normamps=150.000000 units=km
New "LineCode.ug_350al_1" nphases=1 r1=0.31046 r0=0.31046 x1=0.19952 x0=0.19952 B1=12.432 B0=12.432 normamps=300.000000 units=km
New "LineCode.ug_4/0al_3" nphases=3 r1=0.28477 r0=0.68618 x1=0.21847 x0=0.23463 B1=31.431 B0=19.53 normamps=220.000000 units=km

New "LoadShape.default" npts=24 interval=1 mult=[ 0.677 0.6256 0.6087 0.5833 0.58028 0.6025 0.657 0.7477 0.832 0.88 0.94 0.989 0.985 0.98 0.9898 0.999 1 0.958 0.936 0.913 0.876 0.876 0.828 0.756]

New "GrowthShape.default" npts=2 year=(1, 20, ) mult=(1.025, 1.025, )

New "TCC_Curve.a" npts=5 C_array=[ 1 2.5 4.5 8 14] T_array=[ 0.15 0.07 0.05 0.045 0.045]
New "TCC_Curve.d" npts=5 C_array=[ 1 2.5 4.5 8 14] T_array=[ 6 0.7 0.2 0.06 0.02]
New "TCC_Curve.tlink" npts=7 C_array=[ 2 2.1 3 4 6 22 50] T_array=[ 300 100 10.1 4 1.4 0.1 0.02]
New "TCC_Curve.klink" npts=6 C_array=[ 2 2.2 3 4 6 30] T_array=[ 300 20 4 1.3 0.41 0.02]

New "Spectrum.default" NumHarm=7 harmonic=(1, 3, 5, 7, 9, 11, 13, ) %mag=(100, 33, 20, 14, 11, 9, 7, ) angle=(0, 0, 0, 0, 0, 0, 0, )
New "Spectrum.defaultload" NumHarm=7 harmonic=(1, 3, 5, 7, 9, 11, 13, ) %mag=(100, 1.5, 20, 14, 1, 9, 7, ) angle=(0, 180, 180, 180, 180, 180, 180, )
New "Spectrum.defaultgen" NumHarm=7 harmonic=(1, 3, 5, 7, 9, 11, 13, ) %mag=(100, 5, 3, 1.5, 1, 0.7, 0.5, ) angle=(0, 0, 0, 0, 0, 0, 0, )
New "Spectrum.defaultvsource" NumHarm=1 harmonic=(1, ) %mag=(100, ) angle=(0, )
New "Spectrum.linear" NumHarm=1 harmonic=(1, ) %mag=(100, ) angle=(0, )
New "Spectrum.pwm6" NumHarm=13 harmonic=(1, 3, 5, 7, 9, 11, 13, 15, 17, 19, 21, 23, 25, ) %mag=(100, 4.4, 76.5, 62.7, 2.9, 24.8, 12.7, 0.5, 7.1, 8.4, 0.9, 4.4, 3.3, ) angle=(-103, -5, 28, -180, -33, -59, 79, 36, -253, -124, 3, -30, 86, )
New "Spectrum.dc6" NumHarm=10 harmonic=(1, 3, 5, 7, 9, 11, 13, 15, 17, 19, ) %mag=(100, 1.2, 33.6, 1.6, 0.4, 8.7, 1.2, 0.3, 4.5, 1.3, ) angle=(-75, 28, 156, 29, -91, 49, 54, 148, -57, -46, )

New "Line.bon203_74056usd" phases=3 bus1=108687_1s.1.2.3 bus2=74056.1.2.3 length=1.524 units=m spacing=3PH_HORIZ_LG_1C_3 wires="BUSBAR BUSBAR BUSBAR BUSBAR" Seasons=1 Ratings=[400,] normamps=2000 emergamps=2000
New "Line.dav201_1147845usd" phases=3 bus1=1147844_1s.1.2.3 bus2=1147845.1.2.3 length=1.524 units=m spacing=3PH_HORIZ_LG_1C_3 wires="BUSBAR BUSBAR BUSBAR BUSBAR" Seasons=1 Ratings=[400,] normamps=2000 emergamps=2000
New "Line.dav201_1147856usd" phases=3 bus1=1147855_1s.1.2.3 bus2=1147856.1.2.3 length=1.524 units=m spacing=3PH_HORIZ_LG_1C_3 wires="BUSBAR BUSBAR BUSBAR BUSBAR" Seasons=1 Ratings=[400,] normamps=2000 emergamps=2000
New "Line.hmt209_1115649usd" phases=3 bus1=1147872_1s.1.2.3 bus2=1115649.1.2.3 length=1.524 units=m spacing=3PH_HORIZ_LG_1C_3 wires="BUSBAR BUSBAR BUSBAR BUSBAR" Seasons=1 Ratings=[400,] normamps=2000 emergamps=2000
New "Line.hmt215_1147849usd" phases=3 bus1=1147848_1s.1.2.3 bus2=1147849.1.2.3 length=1.524 units=m spacing=3PH_HORIZ_LG_1C_3 wires="BUSBAR BUSBAR BUSBAR BUSBAR" Seasons=1 Ratings=[400,] normamps=2000 emergamps=2000
New "Line.hmt223_1157669usd" phases=3 bus1=100689_1s.1.2.3 bus2=1157669.1.2.3 length=1.524 units=m spacing=3PH_HORIZ_LG_1C_3 wires="BUSBAR BUSBAR BUSBAR BUSBAR" Seasons=1 Ratings=[400,] normamps=2000 emergamps=2000
New "Line.hmt223_64944usd" phases=3 bus1=111450_1s.1.2.3 bus2=64944.1.2.3 length=1.524 units=m spacing=3PH_HORIZ_LG_1C_3 wires="BUSBAR BUSBAR BUSBAR BUSBAR" Seasons=1 Ratings=[400,] normamps=2000 emergamps=2000
New "Line.she212_1147854usd" phases=3 bus1=1147853_1s.1.2.3 bus2=1147854.1.2.3 length=1.524 units=m spacing=3PH_HORIZ_LG_1C_3 wires="BUSBAR BUSBAR BUSBAR BUSBAR" Seasons=1 Ratings=[400,] normamps=2000 emergamps=2000
New "Line.tyn201_1001175fuse" phases=1 bus1=1001176.3 bus2=1001175.3 length=1.524 units=m spacing=1PH_1 wires="BUSBAR BUSBAR" Seasons=1 Ratings=[400,] normamps=2000 emergamps=2000
New "Line.tyn201_1006135fuse" phases=1 bus1=64966.3 bus2=1006135.3 length=1.524 units=m spacing=1PH_1 wires="BUSBAR BUSBAR" Seasons=1 Ratings=[400,] normamps=2000 emergamps=2000
New "Line.tyn201_100685fuse" phases=1 bus1=16687.1 bus2=100685.1 length=1.524 units=m spacing=1PH_1 wires="BUSBAR BUSBAR" Seasons=1 Ratings=[400,] normamps=2000 emergamps=2000
New "Line.tyn201_100688fuse" phases=3 bus1=2497.1.2.3 bus2=100688.1.2.3 length=1.524 units=m spacing=3PH_HORIZ_LG_1C_3 wires="BUSBAR BUSBAR BUSBAR BUSBAR" Seasons=1 Ratings=[400,] normamps=2000 emergamps=2000
New "Line.tyn201_1014271fuse" phases=1 bus1=23193.1 bus2=1014271.1 length=1.524 units=m spacing=1PH_1 wires="BUSBAR BUSBAR" Seasons=1 Ratings=[400,] normamps=2000 emergamps=2000
New "Line.tyn201_101610fuse" phases=3 bus1=23337.1.2.3 bus2=101610.1.2.3 length=1.524 units=m spacing=3PH_HORIZ_LG_1C_3 wires="BUSBAR BUSBAR BUSBAR BUSBAR" Seasons=1 Ratings=[400,] normamps=2000 emergamps=2000
New "Line.tyn201_1032378usd" phases=3 bus1=75506.1.2.3 bus2=1032378.1.2.3 length=1.524 units=m spacing=3PH_HORIZ_LG_1C_3 wires="BUSBAR BUSBAR BUSBAR BUSBAR" Seasons=1 Ratings=[400,] normamps=2000 emergamps=2000
New "Line.tyn201_1052657fuse" phases=3 bus1=64924.1.2.3 bus2=1052657.1.2.3 length=1.524 units=m spacing=3PH_HORIZ_LG_1C_3 wires="BUSBAR BUSBAR BUSBAR BUSBAR" Seasons=1 Ratings=[400,] normamps=2000 emergamps=2000
New "Line.tyn201_105566fuse" phases=1 bus1=16717.1 bus2=105566.1 length=1.524 units=m spacing=1PH_1 wires="BUSBAR BUSBAR" Seasons=1 Ratings=[400,] normamps=2000 emergamps=2000
New "Line.tyn201_107285fuse" phases=1 bus1=64910.1 bus2=107285.1 length=1.524 units=m spacing=1PH_1 wires="BUSBAR BUSBAR" Seasons=1 Ratings=[400,] normamps=2000 emergamps=2000
New "Line.tyn201_107288fuse" phases=1 bus1=2694.2 bus2=107288.2 length=1.524 units=m spacing=1PH_1 wires="BUSBAR BUSBAR" Seasons=1 Ratings=[400,] normamps=2000 emergamps=2000
New "Line.tyn201_107289fuse" phases=3 bus1=64932.1.2.3 bus2=107289.1.2.3 length=1.524 units=m spacing=3PH_HORIZ_LG_1C_3 wires="BUSBAR BUSBAR BUSBAR BUSBAR" Seasons=1 Ratings=[400,] normamps=2000 emergamps=2000
New "Line.tyn201_107290fuse" phases=3 bus1=2706.1.2.3 bus2=107290.1.2.3 length=1.524 units=m spacing=3PH_HORIZ_LG_1C_3 wires="BUSBAR BUSBAR BUSBAR BUSBAR" Seasons=1 Ratings=[400,] normamps=2000 emergamps=2000
New "Line.tyn201_107291fuse" phases=3 bus1=64939.1.2.3 bus2=107291.1.2.3 length=1.524 units=m spacing=3PH_HORIZ_LG_1C_3 wires="BUSBAR BUSBAR BUSBAR BUSBAR" Seasons=1 Ratings=[400,] normamps=2000 emergamps=2000
New "Line.tyn201_107295fuse" phases=1 bus1=64988.2 bus2=107295.2 length=1.524 units=m spacing=1PH_1 wires="BUSBAR BUSBAR" Seasons=1 Ratings=[400,] normamps=2000 emergamps=2000
New "Line.tyn201_107299fuse" phases=2 bus1=65012.2.3 bus2=107299.2.3 length=1.524 units=m spacing=2PH_HORIZ_LG_1C_2 wires="BUSBAR BUSBAR BUSBAR" Seasons=1 Ratings=[400,] normamps=2000 emergamps=2000
New "Line.tyn201_108244fuse" phases=3 bus1=16495.1.2.3 bus2=108244.1.2.3 length=1.524 units=m spacing=3PH_HORIZ_LG_1C_3 wires="BUSBAR BUSBAR BUSBAR BUSBAR" Seasons=1 Ratings=[400,] normamps=2000 emergamps=2000
New "Line.tyn201_108916fuse" phases=1 bus1=64908.2 bus2=108916.2 length=1.524 units=m spacing=1PH_1 wires="BUSBAR BUSBAR" Seasons=1 Ratings=[400,] normamps=2000 emergamps=2000
New "Line.tyn201_1093719fuse" phases=1 bus1=2679.3 bus2=1093719.3 length=1.524 units=m spacing=1PH_1 wires="BUSBAR BUSBAR" Seasons=1 Ratings=[400,] normamps=2000 emergamps=2000
New "Line.tyn201_1093879fuse" phases=1 bus1=64980.2 bus2=1093879.2 length=1.524 units=m spacing=1PH_1 wires="BUSBAR BUSBAR" Seasons=1 Ratings=[400,] normamps=2000 emergamps=2000
New "Line.tyn201_1093897fuse" phases=1 bus1=81020.1 bus2=1093897.1 length=1.524 units=m spacing=1PH_1 wires="BUSBAR BUSBAR" Seasons=1 Ratings=[400,] normamps=2000 emergamps=2000
New "Line.tyn201_1093900fuse" phases=1 bus1=64959.1 bus2=1093900.1 length=1.524 units=m spacing=1PH_1 wires="BUSBAR BUSBAR" Seasons=1 Ratings=[400,] normamps=2000 emergamps=2000
New "Line.tyn201_1093903fuse" phases=1 bus1=64969.2 bus2=1093903.2 length=1.524 units=m spacing=1PH_1 wires="BUSBAR BUSBAR" Seasons=1 Ratings=[400,] normamps=2000 emergamps=2000
New "Line.tyn201_109778usd" phases=3 bus1=80940.1.2.3 bus2=109778.1.2.3 length=1.524 units=m spacing=3PH_HORIZ_LG_1C_3 wires="BUSBAR BUSBAR BUSBAR BUSBAR" Seasons=1 Ratings=[400,] normamps=2000 emergamps=2000
New "Line.tyn201_109792fuse" phases=1 bus1=80987.2 bus2=109792.2 length=1.524 units=m spacing=1PH_1 wires="BUSBAR BUSBAR" Seasons=1 Ratings=[400,] normamps=2000 emergamps=2000
New "Line.tyn201_109827fuse" phases=1 bus1=23586.3 bus2=109827.3 length=1.524 units=m spacing=1PH_1 wires="BUSBAR BUSBAR" Seasons=1 Ratings=[400,] normamps=2000 emergamps=2000
New "Line.tyn201_110646fuse" phases=1 bus1=86114.1 bus2=110646.1 length=1.524 units=m spacing=1PH_1 wires="BUSBAR BUSBAR" Seasons=1 Ratings=[400,] normamps=2000 emergamps=2000
New "Line.tyn201_110647usd" phases=3 bus1=86119.1.2.3 bus2=110647.1.2.3 length=1.524 units=m spacing=3PH_HORIZ_LG_1C_3 wires="BUSBAR BUSBAR BUSBAR BUSBAR" Seasons=1 Ratings=[400,] normamps=2000 emergamps=2000
New "Line.tyn201_110648fuse" phases=1 bus1=86120.1 bus2=110648.1 length=1.524 units=m spacing=1PH_1 wires="BUSBAR BUSBAR" Seasons=1 Ratings=[400,] normamps=2000 emergamps=2000
New "Line.tyn201_110649fuse" phases=1 bus1=16503.3 bus2=110649.3 length=1.524 units=m spacing=1PH_1 wires="BUSBAR BUSBAR" Seasons=1 Ratings=[400,] normamps=2000 emergamps=2000
New "Line.tyn201_110655fuse" phases=3 bus1=2423.1.2.3 bus2=110655.1.2.3 length=1.524 units=m spacing=3PH_HORIZ_LG_1C_3 wires="BUSBAR BUSBAR BUSBAR BUSBAR" Seasons=1 Ratings=[400,] normamps=2000 emergamps=2000
New "Line.tyn201_111456fuse" phases=1 bus1=90954.1 bus2=111456.1 length=1.524 units=m spacing=1PH_1 wires="BUSBAR BUSBAR" Seasons=1 Ratings=[400,] normamps=2000 emergamps=2000
New "Line.tyn201_111460fuse" phases=3 bus1=64952.1.2.3 bus2=111460.1.2.3 length=1.524 units=m spacing=3PH_HORIZ_LG_1C_3 wires="BUSBAR BUSBAR BUSBAR BUSBAR" Seasons=1 Ratings=[400,] normamps=2000 emergamps=2000
New "Line.tyn201_111462usd" phases=3 bus1=64969.1.2.3 bus2=111462.1.2.3 length=1.524 units=m spacing=3PH_HORIZ_LG_1C_3 wires="BUSBAR BUSBAR BUSBAR BUSBAR" Seasons=1 Ratings=[400,] normamps=2000 emergamps=2000
New "Line.tyn201_111463fuse" phases=1 bus1=64978.3 bus2=111463.3 length=1.524 units=m spacing=1PH_1 wires="BUSBAR BUSBAR" Seasons=1 Ratings=[400,] normamps=2000 emergamps=2000
New "Line.tyn201_111464fuse" phases=1 bus1=64978.1 bus2=111464.1 length=1.524 units=m spacing=1PH_1 wires="BUSBAR BUSBAR" Seasons=1 Ratings=[400,] normamps=2000 emergamps=2000
New "Line.tyn201_1115650fuse" phases=3 bus1=23215.1.2.3 bus2=1115650.1.2.3 length=1.524 units=m spacing=3PH_HORIZ_LG_1C_3 wires="BUSBAR BUSBAR BUSBAR BUSBAR" Seasons=1 Ratings=[400,] normamps=2000 emergamps=2000
New "Line.tyn201_1139200fuse" phases=1 bus1=1135132.3 bus2=1139200.3 length=1.524 units=m spacing=1PH_1 wires="BUSBAR BUSBAR" Seasons=1 Ratings=[400,] normamps=2000 emergamps=2000
New "Line.tyn201_1143065fuse" phases=1 bus1=53765.2 bus2=1143065.2 length=1.524 units=m spacing=1PH_1 wires="BUSBAR BUSBAR" Seasons=1 Ratings=[400,] normamps=2000 emergamps=2000
New "Line.tyn201_1143066fuse" phases=1 bus1=53765.2 bus2=1143066.2 length=1.524 units=m spacing=1PH_1 wires="BUSBAR BUSBAR" Seasons=1 Ratings=[400,] normamps=2000 emergamps=2000
New "Line.tyn201_1143071fuse" phases=1 bus1=86063.3 bus2=1143071.3 length=1.524 units=m spacing=1PH_1 wires="BUSBAR BUSBAR" Seasons=1 Ratings=[400,] normamps=2000 emergamps=2000
New "Line.tyn201_1143075fuse" phases=1 bus1=2491.3 bus2=1143075.3 length=1.524 units=m spacing=1PH_1 wires="BUSBAR BUSBAR" Seasons=1 Ratings=[400,] normamps=2000 emergamps=2000
New "Line.tyn201_1143076fuse" phases=1 bus1=90926.1 bus2=1143076.1 length=1.524 units=m spacing=1PH_1 wires="BUSBAR BUSBAR" Seasons=1 Ratings=[400,] normamps=2000 emergamps=2000
New "Line.tyn201_1143187fuse" phases=1 bus1=80860.2 bus2=1143187.2 length=1.524 units=m spacing=1PH_1 wires="BUSBAR BUSBAR" Seasons=1 Ratings=[400,] normamps=2000 emergamps=2000
New "Line.tyn201_1143189fuse" phases=2 bus1=16484.1.3 bus2=1143189.1.3 length=1.524 units=m spacing=2PH_HORIZ_LG_1C_2 wires="BUSBAR BUSBAR BUSBAR" Seasons=1 Ratings=[400,] normamps=2000 emergamps=2000
New "Line.tyn201_1143190fuse" phases=1 bus1=16683.1 bus2=1143190.1 length=1.524 units=m spacing=1PH_1 wires="BUSBAR BUSBAR" Seasons=1 Ratings=[400,] normamps=2000 emergamps=2000
New "Line.tyn201_1143197fuse" phases=3 bus1=71135.1.2.3 bus2=1143197.1.2.3 length=1.524 units=m spacing=3PH_HORIZ_LG_1C_3 wires="BUSBAR BUSBAR BUSBAR BUSBAR" Seasons=1 Ratings=[400,] normamps=2000 emergamps=2000
New "Line.tyn201_1143212usd" phases=3 bus1=75443.1.2.3 bus2=1143212.1.2.3 length=1.524 units=m spacing=3PH_HORIZ_LG_1C_3 wires="BUSBAR BUSBAR BUSBAR BUSBAR" Seasons=1 Ratings=[400,] normamps=2000 emergamps=2000
New "Line.tyn201_1147601usd" phases=3 bus1=1147607_1s.1.2.3 bus2=1147601.1.2.3 length=1.524 units=m spacing=3PH_HORIZ_LG_1C_3 wires="BUSBAR BUSBAR BUSBAR BUSBAR" Seasons=1 Ratings=[400,] normamps=2000 emergamps=2000
New "Line.tyn201_1147797fuse" phases=1 bus1=16483.3 bus2=1147797.3 length=1.524 units=m spacing=1PH_1 wires="BUSBAR BUSBAR" Seasons=1 Ratings=[400,] normamps=2000 emergamps=2000
New "Line.tyn201_1147891fuse" phases=1 bus1=1008234.1 bus2=1147891.1 length=1.524 units=m spacing=1PH_1 wires="BUSBAR BUSBAR" Seasons=1 Ratings=[400,] normamps=2000 emergamps=2000
New "Line.tyn201_1150449fuse" phases=1 bus1=54272.3 bus2=1150449.3 length=1.524 units=m spacing=1PH_1 wires="BUSBAR BUSBAR" Seasons=1 Ratings=[400,] normamps=2000 emergamps=2000
New "Line.tyn201_1157650fuse" phases=3 bus1=16505.1.2.3 bus2=1157650.1.2.3 length=1.524 units=m spacing=3PH_HORIZ_LG_1C_3 wires="BUSBAR BUSBAR BUSBAR BUSBAR" Seasons=1 Ratings=[400,] normamps=2000 emergamps=2000
New "Line.tyn201_1177299fuse" phases=1 bus1=64965.1 bus2=1177299.1 length=1.524 units=m spacing=1PH_1 wires="BUSBAR BUSBAR" Seasons=1 Ratings=[400,] normamps=2000 emergamps=2000
New "Line.tyn201_1177312fuse" phases=1 bus1=2490.1 bus2=1177312.1 length=1.524 units=m spacing=1PH_1 wires="BUSBAR BUSBAR" Seasons=1 Ratings=[400,] normamps=2000 emergamps=2000
New "Line.tyn201_1177313fuse" phases=1 bus1=16490.1 bus2=1177313.1 length=1.524 units=m spacing=1PH_1 wires="BUSBAR BUSBAR" Seasons=1 Ratings=[400,] normamps=2000 emergamps=2000
New "Line.tyn201_1177396fuse" phases=3 bus1=1177395.1.2.3 bus2=1177396.1.2.3 length=1.524 units=m spacing=3PH_HORIZ_LG_1C_3 wires="BUSBAR BUSBAR BUSBAR BUSBAR" Seasons=1 Ratings=[400,] normamps=2000 emergamps=2000
New "Line.tyn201_1179805fuse" phases=1 bus1=90918.1 bus2=1179805.1 length=1.524 units=m spacing=1PH_1 wires="BUSBAR BUSBAR" Seasons=1 Ratings=[400,] normamps=2000 emergamps=2000
New "Line.tyn201_1179846fuse" phases=1 bus1=1179811.1 bus2=1179846.1 length=1.524 units=m spacing=1PH_1 wires="BUSBAR BUSBAR" Seasons=1 Ratings=[400,] normamps=2000 emergamps=2000
New "Line.tyn201_1182866fuse" phases=1 bus1=1182865.1 bus2=1182866.1 length=1.524 units=m spacing=1PH_1 wires="BUSBAR BUSBAR" Seasons=1 Ratings=[400,] normamps=2000 emergamps=2000
New "Line.tyn201_1187369usd" phases=3 bus1=1147863.1.2.3 bus2=1187369.1.2.3 length=1.524 units=m spacing=3PH_HORIZ_LG_1C_3 wires="BUSBAR BUSBAR BUSBAR BUSBAR" Seasons=1 Ratings=[400,] normamps=2000 emergamps=2000
New "Line.tyn201_1187370usd" phases=3 bus1=1187367_1s.1.2.3 bus2=1187370.1.2.3 length=1.524 units=m spacing=3PH_HORIZ_LG_1C_3 wires="BUSBAR BUSBAR BUSBAR BUSBAR" Seasons=1 Ratings=[400,] normamps=2000 emergamps=2000
New "Line.tyn201_1187373usd" phases=2 bus1=1187371_1s.1.3 bus2=1187373.1.3 length=1.524 units=m spacing=2PH_HORIZ_LG_1C_2 wires="BUSBAR BUSBAR BUSBAR" Seasons=1 Ratings=[400,] normamps=2000 emergamps=2000
New "Line.tyn201_1187443fuse" phases=3 bus1=16495.1.2.3 bus2=1187443.1.2.3 length=1.524 units=m spacing=3PH_HORIZ_LG_1C_3 wires="BUSBAR BUSBAR BUSBAR BUSBAR" Seasons=1 Ratings=[400,] normamps=2000 emergamps=2000
New "Line.tyn201_1187642usd" phases=3 bus1=16499.1.2.3 bus2=1187642.1.2.3 length=1.524 units=m spacing=3PH_HORIZ_LG_1C_3 wires="BUSBAR BUSBAR BUSBAR BUSBAR" Seasons=1 Ratings=[400,] normamps=2000 emergamps=2000
New "Line.tyn201_1187786fuse" phases=1 bus1=23210.1 bus2=1187786.1 length=1.524 units=m spacing=1PH_1 wires="BUSBAR BUSBAR" Seasons=1 Ratings=[400,] normamps=2000 emergamps=2000
New "Line.tyn201_23351usd" phases=3 bus1=1147627_1s.1.2.3 bus2=23351.1.2.3 length=1.524 units=m spacing=3PH_HORIZ_LG_1C_3 wires="BUSBAR BUSBAR BUSBAR BUSBAR" Seasons=1 Ratings=[400,] normamps=2000 emergamps=2000
New "Line.tyn201_64925usd" phases=3 bus1=1147583.1.2.3 bus2=64925.1.2.3 length=1.524 units=m spacing=3PH_HORIZ_LG_1C_3 wires="BUSBAR BUSBAR BUSBAR BUSBAR" Seasons=1 Ratings=[400,] normamps=2000 emergamps=2000
New "Line.tyn201_64929_abc64929" phases=3 bus1=64928.1.2.3 bus2=64929.1.2.3 length=34.1376 units=m spacing=3PH_HORIZ_LG_1C_3 wires="AL_336_19STR AL_336_19STR AL_336_19STR ACSR_1/0_6/1" Seasons=1 Ratings=[400,] normamps=448 emergamps=448
New "Line.tyn201_64961usd" phases=3 bus1=1187444.1.2.3 bus2=64961.1.2.3 length=1.524 units=m spacing=3PH_HORIZ_LG_1C_3 wires="BUSBAR BUSBAR BUSBAR BUSBAR" Seasons=1 Ratings=[400,] normamps=2000 emergamps=2000
New "Line.tyn201_80949usd" phases=3 bus1=1151574_1s.1.2.3 bus2=80949.1.2.3 length=1.524 units=m spacing=3PH_HORIZ_LG_1C_3 wires="BUSBAR BUSBAR BUSBAR BUSBAR" Seasons=1 Ratings=[400,] normamps=2000 emergamps=2000
New "Line.tyn201_98962usd" phases=3 bus1=1151626.1.2.3 bus2=98962.1.2.3 length=1.524 units=m spacing=3PH_HORIZ_LG_1C_3 wires="BUSBAR BUSBAR BUSBAR BUSBAR" Seasons=1 Ratings=[400,] normamps=2000 emergamps=2000
New "Line.tyn201_98969fuse" phases=1 bus1=2481.1 bus2=98969.1 length=1.524 units=m spacing=1PH_1 wires="BUSBAR BUSBAR" Seasons=1 Ratings=[400,] normamps=2000 emergamps=2000
New "Line.tyn201_98971fuse" phases=1 bus1=2500.2 bus2=98971.2 length=1.524 units=m spacing=1PH_1 wires="BUSBAR BUSBAR" Seasons=1 Ratings=[400,] normamps=2000 emergamps=2000
New "Line.tyn201_98997fuse" phases=1 bus1=2699.1 bus2=98997.1 length=1.524 units=m spacing=1PH_1 wires="BUSBAR BUSBAR" Seasons=1 Ratings=[400,] normamps=2000 emergamps=2000
New "Line.tyn201_feeder" phases=3 bus1=tyn201.1.2.3 bus2=1147583.1.2.3 length=30.7848 units=m spacing=3PH_HORIZ_LG_1C_3 wires="AL_556_19STR AL_556_19STR AL_556_19STR ACSR_1/0_6/1" Seasons=1 Ratings=[400,] normamps=613 emergamps=613
New "Line.tyn201_w_6_011_abc75442" phases=3 bus1=80946.1.2.3 bus2=75442.1.2.3 length=64.008 units=m spacing=3PH_VERT_1C_3 wires="AL_336_19STR AL_336_19STR AL_336_19STR ACSR_1/0_6/1" Seasons=1 Ratings=[400,] normamps=448 emergamps=448
New "Line.tyn201_w_6_018_abc1151574" phases=3 bus1=80946.1.2.3 bus2=1151574.1.2.3 length=23.4696 units=m spacing=3PH_HORIZ_LG_1C_3 wires="AL_556_19STR AL_556_19STR AL_556_19STR ACSR_1/0_6/1" Seasons=1 Ratings=[400,] normamps=613 emergamps=613
New "Line.tyn201_w_6_020_abc64927" phases=3 bus1=80940.1.2.3 bus2=64927.1.2.3 length=51.5112 units=m spacing=3PH_HORIZ_LG_1C_3 wires="AL_336_19STR AL_336_19STR AL_336_19STR ACSR_1/0_6/1" Seasons=1 Ratings=[400,] normamps=448 emergamps=448
New "Line.tyn201_w_6_022_abc2679" phases=3 bus1=64927.1.2.3 bus2=2679.1.2.3 length=67.9704 units=m spacing=3PH_HORIZ_LG_1C_3 wires="AL_336_19STR AL_336_19STR AL_336_19STR ACSR_1/0_6/1" Seasons=1 Ratings=[400,] normamps=448 emergamps=448
New "Line.tyn201_w_6_024_abc64928" phases=3 bus1=2679.1.2.3 bus2=64928.1.2.3 length=78.6384 units=m spacing=3PH_VERT_1C_3 wires="AL_336_19STR AL_336_19STR AL_336_19STR ACSR_1/0_6/1" Seasons=1 Ratings=[400,] normamps=448 emergamps=448
New "Line.tyn201_w_6_025_abc64930" phases=3 bus1=64929.1.2.3 bus2=64930.1.2.3 length=21.0312 units=m spacing=3PH_HORIZ_LG_1C_3 wires="AL_336_19STR AL_336_19STR AL_336_19STR ACSR_1/0_6/1" Seasons=1 Ratings=[400,] normamps=448 emergamps=448
New "Line.tyn201_w_6_026_abc64931" phases=3 bus1=64930.1.2.3 bus2=64931.1.2.3 length=46.0248 units=m spacing=3PH_HORIZ_LG_1C_3 wires="AL_336_19STR AL_336_19STR AL_336_19STR ACSR_1/0_6/1" Seasons=1 Ratings=[400,] normamps=448 emergamps=448
New "Line.tyn201_w_6_030_abc64934" phases=3 bus1=64931.1.2.3 bus2=64934.1.2.3 length=105.156 units=m spacing=3PH_HORIZ_LG_1C_3 wires="AL_336_19STR AL_336_19STR AL_336_19STR ACSR_1/0_6/1" Seasons=1 Ratings=[400,] normamps=448 emergamps=448
New "Line.tyn201_w_6_034_abc2699" phases=3 bus1=64921.1.2.3 bus2=2699.1.2.3 length=114.3 units=m spacing=3PH_VERT_1C_3 wires="AL_336_19STR AL_336_19STR AL_336_19STR ACSR_1/0_6/1" Seasons=1 Ratings=[400,] normamps=448 emergamps=448
New "Line.tyn201_w_6_036_abc64935" phases=3 bus1=2699.1.2.3 bus2=64935.1.2.3 length=85.0392 units=m spacing=3PH_HORIZ_LG_1C_3 wires="AL_336_19STR AL_336_19STR AL_336_19STR ACSR_1/0_6/1" Seasons=1 Ratings=[400,] normamps=448 emergamps=448
New "Line.tyn201_w_6_037_abc64937" phases=3 bus1=64935.1.2.3 bus2=64937.1.2.3 length=75.2856 units=m spacing=3PH_HORIZ_LG_1C_3 wires="AL_336_19STR AL_336_19STR AL_336_19STR ACSR_1/0_6/1" Seasons=1 Ratings=[400,] normamps=448 emergamps=448
New "Line.tyn201_w_6_039_abc64938" phases=3 bus1=64937.1.2.3 bus2=64938.1.2.3 length=68.8848 units=m spacing=3PH_HORIZ_LG_1C_3 wires="AL_336_19STR AL_336_19STR AL_336_19STR ACSR_1/0_6/1" Seasons=1 Ratings=[400,] normamps=448 emergamps=448
New "Line.tyn201_w_6_040_abc64940" phases=3 bus1=64938.1.2.3 bus2=64940.1.2.3 length=33.528 units=m spacing=3PH_VERT_1C_3 wires="AL_336_19STR AL_336_19STR AL_336_19STR ACSR_1/0_6/1" Seasons=1 Ratings=[400,] normamps=448 emergamps=448
New "Line.tyn201_w_6_041_abc64915" phases=3 bus1=64920.1.2.3 bus2=64915.1.2.3 length=66.7512 units=m spacing=3PH_HORIZ_LG_1C_3 wires="AL_336_19STR AL_336_19STR AL_336_19STR ACSR_1/0_6/1" Seasons=1 Ratings=[400,] normamps=448 emergamps=448
New "Line.tyn201_w_6_043_abc64920" phases=3 bus1=64924.1.2.3 bus2=64920.1.2.3 length=64.9224 units=m spacing=3PH_HORIZ_LG_1C_3 wires="AL_336_19STR AL_336_19STR AL_336_19STR ACSR_1/0_6/1" Seasons=1 Ratings=[400,] normamps=448 emergamps=448
New "Line.tyn201_w_6_045_abc64924" phases=3 bus1=64940.1.2.3 bus2=64924.1.2.3 length=40.2336 units=m spacing=3PH_HORIZ_LG_1C_3 wires="AL_336_19STR AL_336_19STR AL_336_19STR ACSR_1/0_6/1" Seasons=1 Ratings=[400,] normamps=448 emergamps=448
New "Line.tyn201_w_6_054_abc23347" phases=3 bus1=23349.1.2.3 bus2=23347.1.2.3 length=78.0288 units=m spacing=3PH_HORIZ_LG_1C_3 wires="AL_1/0_7STR AL_1/0_7STR AL_1/0_7STR ACSR_1/0_6/1" Seasons=1 Ratings=[400,] normamps=216 emergamps=216
New "Line.tyn201_w_6_057_abc2423" phases=3 bus1=2418.1.2.3 bus2=2423.1.2.3 length=115.2144 units=m spacing=3PH_VERT_1C_3 wires="AL_1/0_7STR AL_1/0_7STR AL_1/0_7STR ACSR_1/0_6/1" Seasons=1 Ratings=[400,] normamps=216 emergamps=216
New "Line.tyn201_w_6_083_abc1151627" phases=3 bus1=98962.1.2.3 bus2=1151627.1.2.3 length=48.4632 units=m spacing=3PH_HORIZ_LG_1C_3 wires="AL_1/0_7STR AL_1/0_7STR AL_1/0_7STR ACSR_1/0_6/1" Seasons=1 Ratings=[400,] normamps=216 emergamps=216
New "Line.tyn201_w_6_112_abc64914" phases=3 bus1=64915.1.2.3 bus2=64914.1.2.3 length=50.5968 units=m spacing=3PH_HORIZ_LG_1C_3 wires="AL_336_19STR AL_336_19STR AL_336_19STR ACSR_1/0_6/1" Seasons=1 Ratings=[400,] normamps=448 emergamps=448
New "Line.tyn201_w_6_113_abc86119" phases=3 bus1=64914.1.2.3 bus2=86119.1.2.3 length=49.0728 units=m spacing=3PH_HORIZ_LG_1C_3 wires="AL_336_19STR AL_336_19STR AL_336_19STR ACSR_1/0_6/1" Seasons=1 Ratings=[400,] normamps=448 emergamps=448
New "Line.tyn201_w_6_115_abc86120" phases=3 bus1=110647.1.2.3 bus2=86120.1.2.3 length=55.4736 units=m spacing=3PH_HORIZ_LG_1C_3 wires="AL_336_19STR AL_336_19STR AL_336_19STR ACSR_1/0_6/1" Seasons=1 Ratings=[400,] normamps=448 emergamps=448
New "Line.tyn201_w_6_116_a86121" phases=1 bus1=110648.1 bus2=86121.1 length=36.576 units=m spacing=1PH_1 wires="AL_#2_7STR ACSR_1/0_6/1" Seasons=1 Ratings=[400,] normamps=162 emergamps=162
New "Line.tyn201_w_6_130_abc2418" phases=3 bus1=98962.1.2.3 bus2=2418.1.2.3 length=34.7472 units=m spacing=3PH_HORIZ_LG_1C_3 wires="AL_1/0_7STR AL_1/0_7STR AL_1/0_7STR ACSR_1/0_6/1" Seasons=1 Ratings=[400,] normamps=216 emergamps=216
New "Line.tyn201_w_6_154_abc2417" phases=3 bus1=98963.1.2.3 bus2=2417.1.2.3 length=38.7096 units=m spacing=3PH_VERT_1C_3 wires="AL_1/0_7STR AL_1/0_7STR AL_1/0_7STR ACSR_1/0_6/1" Seasons=1 Ratings=[400,] normamps=216 emergamps=216
New "Line.tyn201_w_6_155_abc2416" phases=3 bus1=2417.1.2.3 bus2=2416.1.2.3 length=32.6136 units=m spacing=3PH_VERT_1C_3 wires="AL_1/0_7STR AL_1/0_7STR AL_1/0_7STR ACSR_1/0_6/1" Seasons=1 Ratings=[400,] normamps=216 emergamps=216
New "Line.tyn201_w_6_179_a64936" phases=1 bus1=98997.1 bus2=64936.1 length=105.7656 units=m spacing=1PH_1 wires="AL_1/0_7STR ACSR_1/0_6/1" Seasons=1 Ratings=[400,] normamps=216 emergamps=216
New "Line.tyn201_w_6_224_abc64921" phases=3 bus1=64934.1.2.3 bus2=64921.1.2.3 length=124.968 units=m spacing=3PH_HORIZ_LG_1C_3 wires="AL_336_19STR AL_336_19STR AL_336_19STR ACSR_1/0_6/1" Seasons=1 Ratings=[400,] normamps=448 emergamps=448
New "Line.tyn201_w_6_225_abc64910" phases=3 bus1=64921.1.2.3 bus2=64910.1.2.3 length=56.0832 units=m spacing=3PH_HORIZ_LG_1C_3 wires="AL_1/0_7STR AL_1/0_7STR AL_1/0_7STR ACSR_1/0_6/1" Seasons=1 Ratings=[400,] normamps=216 emergamps=216
New "Line.tyn201_w_6_230_b2705" phases=1 bus1=2693.2 bus2=2705.2 length=25.908 units=m spacing=1PH_1 wires="AL_#2_7STR ACSR_1/0_6/1" Seasons=1 Ratings=[400,] normamps=162 emergamps=162
New "Line.tyn201_w_6_246_b90734" phases=1 bus1=2406.2 bus2=90734.2 length=43.5864 units=m spacing=1PH_1 wires="AL_#2_7STR ACSR_1/0_6/1" Seasons=1 Ratings=[400,] normamps=162 emergamps=162
New "Line.tyn201_w_6_247_b2406" phases=1 bus1=2405.2 bus2=2406.2 length=52.1208 units=m spacing=1PH_1 wires="AL_#2_7STR ACSR_1/0_6/1" Seasons=1 Ratings=[400,] normamps=162 emergamps=162
New "Line.tyn201_w_6_248_b2405" phases=1 bus1=2705.2 bus2=2405.2 length=25.908 units=m spacing=1PH_1 wires="AL_#2_7STR ACSR_1/0_6/1" Seasons=1 Ratings=[400,] normamps=162 emergamps=162
New "Line.tyn201_w_6_249_b2693" phases=1 bus1=107288.2 bus2=2693.2 length=54.5592 units=m spacing=1PH_1 wires="AL_#2_7STR ACSR_1/0_6/1" Seasons=1 Ratings=[400,] normamps=162 emergamps=162
New "Line.tyn201_w_6_250_b2694" phases=1 bus1=64929.2 bus2=2694.2 length=9.144 units=m spacing=1PH_1 wires="CU_#6_1STR ACSR_1/0_6/1" Seasons=1 Ratings=[400,] normamps=112 emergamps=112
New "Line.tyn201_w_6_260_abc75443" phases=3 bus1=75442.1.2.3 bus2=75443.1.2.3 length=78.0288 units=m spacing=3PH_VERT_1C_3 wires="AL_336_19STR AL_336_19STR AL_336_19STR ACSR_1/0_6/1" Seasons=1 Ratings=[400,] normamps=448 emergamps=448
New "Line.tyn201_w_6_296_abc80946" phases=3 bus1=109778.1.2.3 bus2=80946.1.2.3 length=27.432 units=m spacing=3PH_HORIZ_LG_1C_3 wires="AL_556_19STR AL_556_19STR AL_556_19STR ACSR_1/0_6/1" Seasons=1 Ratings=[400,] normamps=613 emergamps=613
New "Line.tyn201_w_6_302_a64911" phases=1 bus1=107285.1 bus2=64911.1 length=59.436 units=m spacing=1PH_1 wires="AL_1/0_7STR ACSR_1/0_6/1" Seasons=1 Ratings=[400,] normamps=216 emergamps=216
New "Line.tyn201_w_6_303_a86114" phases=1 bus1=64911.1 bus2=86114.1 length=57.6072 units=m spacing=1PH_1 wires="AL_1/0_7STR ACSR_1/0_6/1" Seasons=1 Ratings=[400,] normamps=216 emergamps=216
New "Line.tyn201_w_6_304_a86115" phases=1 bus1=110646.1 bus2=86115.1 length=50.292 units=m spacing=1PH_1 wires="AL_#2_7STR ACSR_1/0_6/1" Seasons=1 Ratings=[400,] normamps=162 emergamps=162
New "Line.tyn201_w_6_305_a86116" phases=1 bus1=86115.1 bus2=86116.1 length=39.9288 units=m spacing=1PH_1 wires="AL_#2_7STR ACSR_1/0_6/1" Seasons=1 Ratings=[400,] normamps=162 emergamps=162
New "Line.tyn201_w_6_306_a16678" phases=1 bus1=86116.1 bus2=16678.1 length=79.5528 units=m spacing=1PH_1 wires="AL_#2_7STR ACSR_1/0_6/1" Seasons=1 Ratings=[400,] normamps=162 emergamps=162
New "Line.tyn201_w_6_307_a16675" phases=1 bus1=16678.1 bus2=16675.1 length=78.6384 units=m spacing=1PH_1 wires="AL_#2_7STR ACSR_1/0_6/1" Seasons=1 Ratings=[400,] normamps=162 emergamps=162
New "Line.tyn201_w_6_308_a16676" phases=1 bus1=16675.1 bus2=16676.1 length=47.8536 units=m spacing=1PH_1 wires="AL_#2_7STR ACSR_1/0_6/1" Seasons=1 Ratings=[400,] normamps=162 emergamps=162
New "Line.tyn201_w_6_309_a86117" phases=1 bus1=16676.1 bus2=86117.1 length=52.7304 units=m spacing=1PH_1 wires="AL_#2_7STR ACSR_1/0_6/1" Seasons=1 Ratings=[400,] normamps=162 emergamps=162
New "Line.tyn201_w_6_311_a16687" phases=1 bus1=86114.1 bus2=16687.1 length=107.5944 units=m spacing=1PH_1 wires="AL_1/0_7STR ACSR_1/0_6/1" Seasons=1 Ratings=[400,] normamps=216 emergamps=216
New "Line.tyn201_w_6_312_a16688" phases=1 bus1=100685.1 bus2=16688.1 length=52.4256 units=m spacing=1PH_1 wires="AL_#2_7STR ACSR_1/0_6/1" Seasons=1 Ratings=[400,] normamps=162 emergamps=162
New "Line.tyn201_w_6_313_a16691" phases=1 bus1=16688.1 bus2=16691.1 length=38.1 units=m spacing=1PH_1 wires="AL_#2_7STR ACSR_1/0_6/1" Seasons=1 Ratings=[400,] normamps=162 emergamps=162
New "Line.tyn201_w_6_314_a16699" phases=1 bus1=16691.1 bus2=16699.1 length=81.6864 units=m spacing=1PH_1 wires="AL_#2_7STR ACSR_1/0_6/1" Seasons=1 Ratings=[400,] normamps=162 emergamps=162
New "Line.tyn201_w_6_315_a16709" phases=1 bus1=16699.1 bus2=16709.1 length=87.4776 units=m spacing=1PH_1 wires="AL_#2_7STR ACSR_1/0_6/1" Seasons=1 Ratings=[400,] normamps=162 emergamps=162
New "Line.tyn201_w_6_316_a16718" phases=1 bus1=16709.1 bus2=16718.1 length=81.9912 units=m spacing=1PH_1 wires="AL_#2_7STR ACSR_1/0_6/1" Seasons=1 Ratings=[400,] normamps=162 emergamps=162
New "Line.tyn201_w_6_317_a16719" phases=1 bus1=16718.1 bus2=16719.1 length=81.0768 units=m spacing=1PH_1 wires="AL_#2_7STR ACSR_1/0_6/1" Seasons=1 Ratings=[400,] normamps=162 emergamps=162
New "Line.tyn201_w_6_318_a53891" phases=1 bus1=16719.1 bus2=53891.1 length=77.724 units=m spacing=1PH_1 wires="AL_#2_7STR ACSR_1/0_6/1" Seasons=1 Ratings=[400,] normamps=162 emergamps=162
New "Line.tyn201_w_6_319_a53880" phases=1 bus1=53891.1 bus2=53880.1 length=79.248 units=m spacing=1PH_1 wires="AL_#2_7STR ACSR_1/0_6/1" Seasons=1 Ratings=[400,] normamps=162 emergamps=162
New "Line.tyn201_w_6_320_a53877" phases=1 bus1=53880.1 bus2=53877.1 length=78.9432 units=m spacing=1PH_1 wires="AL_#2_7STR ACSR_1/0_6/1" Seasons=1 Ratings=[400,] normamps=162 emergamps=162
New "Line.tyn201_w_6_321_a1177106" phases=1 bus1=53877.1 bus2=1177106.1 length=89.916 units=m spacing=1PH_1 wires="AL_#2_7STR ACSR_1/0_6/1" Seasons=1 Ratings=[400,] normamps=162 emergamps=162
New "Line.tyn201_w_6_331_c1093718" phases=1 bus1=1093719.3 bus2=1093718.3 length=92.964 units=m spacing=1PH_1 wires="AL_#2_7STR ACSR_1/0_6/1" Seasons=1 Ratings=[400,] normamps=162 emergamps=162
New "Line.tyn201_w_6_334_a16690" phases=1 bus1=16675.1 bus2=16690.1 length=52.1208 units=m spacing=1PH_1 wires="AL_#2_7STR ACSR_1/0_6/1" Seasons=1 Ratings=[400,] normamps=162 emergamps=162
New "Line.tyn201_w_6_335_a16698" phases=1 bus1=16690.1 bus2=16698.1 length=81.9912 units=m spacing=1PH_1 wires="AL_#2_7STR ACSR_1/0_6/1" Seasons=1 Ratings=[400,] normamps=162 emergamps=162
New "Line.tyn201_w_6_336_a16710" phases=1 bus1=16698.1 bus2=16710.1 length=78.9432 units=m spacing=1PH_1 wires="AL_#2_7STR ACSR_1/0_6/1" Seasons=1 Ratings=[400,] normamps=162 emergamps=162
New "Line.tyn201_w_6_337_a53870" phases=1 bus1=16710.1 bus2=53870.1 length=78.9432 units=m spacing=1PH_1 wires="AL_#2_7STR ACSR_1/0_6/1" Seasons=1 Ratings=[400,] normamps=162 emergamps=162
New "Line.tyn201_w_6_338_a53879" phases=1 bus1=53870.1 bus2=53879.1 length=79.5528 units=m spacing=1PH_1 wires="AL_#2_7STR ACSR_1/0_6/1" Seasons=1 Ratings=[400,] normamps=162 emergamps=162
New "Line.tyn201_w_6_339_a86118" phases=1 bus1=86117.1 bus2=86118.1 length=60.3504 units=m spacing=1PH_1 wires="AL_#2_7STR ACSR_1/0_6/1" Seasons=1 Ratings=[400,] normamps=162 emergamps=162
New "Line.tyn201_w_6_360_a16670" phases=1 bus1=86118.1 bus2=16670.1 length=72.5424 units=m spacing=1PH_1 wires="AL_1/0_7STR ACSR_1/0_6/1" Seasons=1 Ratings=[400,] normamps=216 emergamps=216
New "Line.tyn201_w_6_361_a16671" phases=1 bus1=16670.1 bus2=16671.1 length=79.5528 units=m spacing=1PH_1 wires="AL_1/0_7STR ACSR_1/0_6/1" Seasons=1 Ratings=[400,] normamps=216 emergamps=216
New "Line.tyn201_w_6_362_a16684" phases=1 bus1=16671.1 bus2=16684.1 length=78.6384 units=m spacing=1PH_1 wires="AL_1/0_7STR ACSR_1/0_6/1" Seasons=1 Ratings=[400,] normamps=216 emergamps=216
New "Line.tyn201_w_6_363_a16695" phases=1 bus1=16684.1 bus2=16695.1 length=79.5528 units=m spacing=1PH_1 wires="AL_1/0_7STR ACSR_1/0_6/1" Seasons=1 Ratings=[400,] normamps=216 emergamps=216
New "Line.tyn201_w_6_364_a16708" phases=1 bus1=16695.1 bus2=16708.1 length=89.3064 units=m spacing=1PH_1 wires="AL_1/0_7STR ACSR_1/0_6/1" Seasons=1 Ratings=[400,] normamps=216 emergamps=216
New "Line.tyn201_w_6_365_a16717" phases=1 bus1=16708.1 bus2=16717.1 length=46.6344 units=m spacing=1PH_1 wires="AL_1/0_7STR ACSR_1/0_6/1" Seasons=1 Ratings=[400,] normamps=216 emergamps=216
New "Line.tyn201_w_6_366_a53872" phases=1 bus1=16717.1 bus2=53872.1 length=49.3776 units=m spacing=1PH_1 wires="AL_1/0_7STR ACSR_1/0_6/1" Seasons=1 Ratings=[400,] normamps=216 emergamps=216
New "Line.tyn201_w_6_367_a53875" phases=1 bus1=53872.1 bus2=53875.1 length=51.2064 units=m spacing=1PH_1 wires="AL_1/0_7STR ACSR_1/0_6/1" Seasons=1 Ratings=[400,] normamps=216 emergamps=216
New "Line.tyn201_w_6_386_abc2424" phases=3 bus1=110655.1.2.3 bus2=2424.1.2.3 length=53.9496 units=m spacing=3PH_HORIZ_LG_1C_3 wires="AL_#2_7STR AL_#2_7STR AL_#2_7STR ACSR_1/0_6/1" Seasons=1 Ratings=[400,] normamps=162 emergamps=162
New "Line.tyn201_w_6_387_abc1174537" phases=3 bus1=2424.1.2.3 bus2=1174537.1.2.3 length=45.72 units=m spacing=3PH_HORIZ_LG_1C_3 wires="AL_#2_7STR AL_#2_7STR AL_#2_7STR ACSR_1/0_6/1" Seasons=1 Ratings=[400,] normamps=162 emergamps=162
New "Line.tyn201_w_6_423_abc80940" phases=3 bus1=64925.1.2.3 bus2=80940.1.2.3 length=58.8264 units=m spacing=3PH_HORIZ_LG_1C_3 wires="AL_556_19STR AL_556_19STR AL_556_19STR ACSR_1/0_6/1" Seasons=1 Ratings=[400,] normamps=613 emergamps=613
New "Line.tyn201_w_6_426_abc86146" phases=3 bus1=2423.1.2.3 bus2=86146.1.2.3 length=73.7616 units=m spacing=3PH_HORIZ_LG_1C_3 wires="AL_1/0_7STR AL_1/0_7STR AL_1/0_7STR ACSR_1/0_6/1" Seasons=1 Ratings=[400,] normamps=216 emergamps=216
New "Line.tyn201_w_6_427_abc86145" phases=3 bus1=86146.1.2.3 bus2=86145.1.2.3 length=40.8432 units=m spacing=3PH_HORIZ_LG_1C_3 wires="AL_1/0_7STR AL_1/0_7STR AL_1/0_7STR ACSR_1/0_6/1" Seasons=1 Ratings=[400,] normamps=216 emergamps=216
New "Line.tyn201_w_6_428_abc23349" phases=3 bus1=86145.1.2.3 bus2=23349.1.2.3 length=69.4944 units=m spacing=3PH_HORIZ_LG_1C_3 wires="AL_1/0_7STR AL_1/0_7STR AL_1/0_7STR ACSR_1/0_6/1" Seasons=1 Ratings=[400,] normamps=216 emergamps=216
New "Line.tyn201_w_6_431_abc23337" phases=3 bus1=23347.1.2.3 bus2=23337.1.2.3 length=44.8056 units=m spacing=3PH_HORIZ_LG_1C_3 wires="AL_1/0_7STR AL_1/0_7STR AL_1/0_7STR ACSR_1/0_6/1" Seasons=1 Ratings=[400,] normamps=216 emergamps=216
New "Line.tyn201_w_6_446_abc1151626" phases=3 bus1=1151624.1.2.3 bus2=1151626.1.2.3 length=69.7992 units=m spacing=3PH_HORIZ_LG_1C_3 wires="AL_1/0_7STR AL_1/0_7STR AL_1/0_7STR ACSR_1/0_6/1" Seasons=1 Ratings=[400,] normamps=216 emergamps=216
New "Line.tyn201_w_6_447_abc1151624" phases=3 bus1=2412.1.2.3 bus2=1151624.1.2.3 length=60.0456 units=m spacing=3PH_HORIZ_LG_1C_3 wires="AL_1/0_7STR AL_1/0_7STR AL_1/0_7STR ACSR_1/0_6/1" Seasons=1 Ratings=[400,] normamps=216 emergamps=216
New "Line.tyn201_w_6_458_abc64918" phases=3 bus1=71135.1.2.3 bus2=64918.1.2.3 length=46.3296 units=m spacing=3PH_HORIZ_LG_1C_3 wires="AL_1/0_7STR AL_1/0_7STR AL_1/0_7STR ACSR_1/0_6/1" Seasons=1 Ratings=[400,] normamps=216 emergamps=216
New "Line.tyn201_w_6_459_abc64919" phases=3 bus1=64918.1.2.3 bus2=64919.1.2.3 length=56.388 units=m spacing=3PH_HORIZ_LG_1C_3 wires="AL_1/0_7STR AL_1/0_7STR AL_1/0_7STR ACSR_1/0_6/1" Seasons=1 Ratings=[400,] normamps=216 emergamps=216
New "Line.tyn201_w_6_461_abc64939" phases=3 bus1=64938.1.2.3 bus2=64939.1.2.3 length=21.9456 units=m spacing=3PH_HORIZ_LG_1C_3 wires="AL_1/0_7STR AL_1/0_7STR AL_1/0_7STR ACSR_1/0_6/1" Seasons=1 Ratings=[400,] normamps=216 emergamps=216
New "Line.tyn201_w_6_462_abc2706" phases=3 bus1=107291.1.2.3 bus2=2706.1.2.3 length=45.72 units=m spacing=3PH_HORIZ_LG_1C_3 wires="AL_1/0_7STR AL_1/0_7STR AL_1/0_7STR ACSR_1/0_6/1" Seasons=1 Ratings=[400,] normamps=216 emergamps=216
New "Line.tyn201_w_6_463_abc1052656" phases=3 bus1=1052657.1.2.3 bus2=1052656.1.2.3 length=15.24 units=m spacing=3PH_HORIZ_LG_1C_3 wires="AL_1/0_7STR AL_1/0_7STR AL_1/0_7STR ACSR_1/0_6/1" Seasons=1 Ratings=[400,] normamps=216 emergamps=216
New "Line.tyn201_w_6_464_bc64908" phases=2 bus1=75442.2.3 bus2=64908.2.3 length=60.3504 units=m spacing=2PH_HORIZ_LG_1C_2 wires="AL_#2_7STR AL_#2_7STR ACSR_1/0_6/1" Seasons=1 Ratings=[400,] normamps=162 emergamps=162
New "Line.tyn201_w_6_493_abc64932" phases=3 bus1=64930.1.2.3 bus2=64932.1.2.3 length=28.6512 units=m spacing=3PH_HORIZ_LG_1C_3 wires="AL_1/0_7STR AL_1/0_7STR AL_1/0_7STR ACSR_1/0_6/1" Seasons=1 Ratings=[400,] normamps=216 emergamps=216
New "Line.tyn201_w_6_509_a2700" phases=1 bus1=98998.1 bus2=2700.1 length=97.8408 units=m spacing=1PH_1 wires="AL_#2_7STR ACSR_1/0_6/1" Seasons=1 Ratings=[400,] normamps=162 emergamps=162
New "Line.tyn201_w_6_513_abc23338" phases=3 bus1=23337.1.2.3 bus2=23338.1.2.3 length=39.3192 units=m spacing=3PH_HORIZ_LG_1C_3 wires="AL_1/0_7STR AL_1/0_7STR AL_1/0_7STR ACSR_1/0_6/1" Seasons=1 Ratings=[400,] normamps=216 emergamps=216
New "Line.tyn201_w_6_514_abc23339" phases=3 bus1=23338.1.2.3 bus2=23339.1.2.3 length=63.3984 units=m spacing=3PH_HORIZ_LG_1C_3 wires="AL_4/0_7STR AL_4/0_7STR AL_4/0_7STR ACSR_1/0_6/1" Seasons=1 Ratings=[400,] normamps=334 emergamps=334
New "Line.tyn201_w_6_516_abc1147627" phases=3 bus1=23339.1.2.3 bus2=1147627.1.2.3 length=55.1688 units=m spacing=3PH_HORIZ_LG_1C_3 wires="AL_4/0_7STR AL_4/0_7STR AL_4/0_7STR ACSR_1/0_6/1" Seasons=1 Ratings=[400,] normamps=334 emergamps=334
New "Line.tyn201_w_6_529_abc1143211" phases=3 bus1=1143212.1.2.3 bus2=1143211.1.2.3 length=80.772 units=m spacing=3PH_VERT_1C_3 wires="AL_556_19STR AL_556_19STR AL_556_19STR ACSR_1/0_6/1" Seasons=1 Ratings=[400,] normamps=613 emergamps=613
New "Line.tyn201_w_6_537_abc1147607" phases=3 bus1=64925.1.2.3 bus2=1147607.1.2.3 length=29.8704 units=m spacing=3PH_HORIZ_LG_1C_3 wires="AL_556_19STR AL_556_19STR AL_556_19STR ACSR_1/0_6/1" Seasons=1 Ratings=[400,] normamps=613 emergamps=613
New "Line.tyn201_w_9_027_a16700" phases=1 bus1=16691.1 bus2=16700.1 length=45.72 units=m spacing=1PH_1 wires="AL_#2_7STR ACSR_1/0_6/1" Seasons=1 Ratings=[400,] normamps=162 emergamps=162
New "Line.tyn201_w_9_280_abc1157669" phases=3 bus1=1157666.1.2.3 bus2=1157669.1.2.3 length=65.532 units=m spacing=3PH_HORIZ_LG_1C_3 wires="AL_4/0_7STR AL_4/0_7STR AL_4/0_7STR ACSR_1/0_6/1" Seasons=1 Ratings=[400,] normamps=334 emergamps=334
New "Line.tyn201_w_9_456_abc86102" phases=3 bus1=1143211.1.2.3 bus2=86102.1.2.3 length=59.7408 units=m spacing=3PH_VERT_1C_3 wires="AL_556_19STR AL_556_19STR AL_556_19STR ACSR_1/0_6/1" Seasons=1 Ratings=[400,] normamps=613 emergamps=613
New "Line.tyn201_w_9_457_abc1157668" phases=3 bus1=86102.1.2.3 bus2=1157668.1.2.3 length=56.9976 units=m spacing=3PH_VERT_1C_3 wires="AL_556_19STR AL_556_19STR AL_556_19STR ACSR_1/0_6/1" Seasons=1 Ratings=[400,] normamps=613 emergamps=613
New "Line.tyn201_w_9_484_abc1157666" phases=3 bus1=1157668.1.2.3 bus2=1157666.1.2.3 length=20.4216 units=m spacing=3PH_VERT_1C_3 wires="AL_556_19STR AL_556_19STR AL_556_19STR ACSR_1/0_6/1" Seasons=1 Ratings=[400,] normamps=613 emergamps=613
New "Line.tyn201_z_61007_c41275" phases=1 bus1=22975.3 bus2=41275.3 length=83.2104 units=m spacing=1PH_1 wires="AL_#2_7STR ACSR_1/0_6/1" Seasons=1 Ratings=[400,] normamps=162 emergamps=162
New "Line.tyn201_z_61076_a64740" phases=1 bus1=65004.1 bus2=64740.1 length=78.3336 units=m spacing=1PH_1 wires="AL_1/0_7STR ACSR_1/0_6/1" Seasons=1 Ratings=[400,] normamps=216 emergamps=216
New "Line.tyn201_z_61216_abc64943" phases=3 bus1=90950.1.2.3 bus2=64943.1.2.3 length=25.6032 units=m spacing=3PH_HORIZ_LG_1C_3 wires="AL_1/0_7STR AL_1/0_7STR AL_1/0_7STR ACSR_1/0_6/1" Seasons=1 Ratings=[400,] normamps=216 emergamps=216
New "Line.tyn201_z_61217_abc64944" phases=3 bus1=64943.1.2.3 bus2=64944.1.2.3 length=31.6992 units=m spacing=3PH_HORIZ_LG_1C_3 wires="AL_4/0_7STR AL_4/0_7STR AL_4/0_7STR ACSR_1/0_6/1" Seasons=1 Ratings=[400,] normamps=334 emergamps=334
New "Line.tyn201_z_61220_abc90958" phases=3 bus1=90957.1.2.3 bus2=90958.1.2.3 length=40.5384 units=m spacing=3PH_HORIZ_LG_1C_3 wires="AL_556_19STR AL_556_19STR AL_556_19STR ACSR_1/0_6/1" Seasons=1 Ratings=[400,] normamps=613 emergamps=613
New "Line.tyn201_z_61221_abc90959" phases=3 bus1=90979.1.2.3 bus2=90959.1.2.3 length=60.0456 units=m spacing=3PH_VERT_1C_3 wires="ACSR_1/0_6/1 ACSR_1/0_6/1 ACSR_1/0_6/1 ACSR_1/0_6/1" Seasons=1 Ratings=[400,] normamps=255 emergamps=255
New "Line.tyn201_z_61283_abc1001176" phases=3 bus1=53762.1.2.3 bus2=1001176.1.2.3 length=66.1416 units=m spacing=3PH_HORIZ_LG_1C_3 wires="ACSR_1/0_6/1 ACSR_1/0_6/1 ACSR_1/0_6/1 ACSR_1/0_6/1" Seasons=1 Ratings=[400,] normamps=255 emergamps=255
New "Line.tyn201_z_61284_abc53762" phases=3 bus1=53761.1.2.3 bus2=53762.1.2.3 length=49.9872 units=m spacing=3PH_HORIZ_LG_1C_3 wires="ACSR_1/0_6/1 ACSR_1/0_6/1 ACSR_1/0_6/1 ACSR_1/0_6/1" Seasons=1 Ratings=[400,] normamps=255 emergamps=255
New "Line.tyn201_z_6_020_abc80869" phases=3 bus1=80880.1.2.3 bus2=80869.1.2.3 length=47.244 units=m spacing=3PH_HORIZ_LG_1C_3 wires="AL_1/0_7STR AL_1/0_7STR AL_1/0_7STR ACSR_1/0_6/1" Seasons=1 Ratings=[400,] normamps=216 emergamps=216
New "Line.tyn201_z_6_050_abc80859" phases=3 bus1=80869.1.2.3 bus2=80859.1.2.3 length=62.1792 units=m spacing=3PH_HORIZ_LG_1C_3 wires="AL_1/0_7STR AL_1/0_7STR AL_1/0_7STR ACSR_1/0_6/1" Seasons=1 Ratings=[400,] normamps=216 emergamps=216
New "Line.tyn201_z_6_051_abc23218" phases=3 bus1=23210.1.2.3 bus2=23218.1.2.3 length=60.6552 units=m spacing=3PH_HORIZ_LG_1C_3 wires="AL_1/0_7STR AL_1/0_7STR AL_1/0_7STR ACSR_1/0_6/1" Seasons=1 Ratings=[400,] normamps=216 emergamps=216
New "Line.tyn201_z_6_052_abc41246" phases=3 bus1=65031.1.2.3 bus2=41246.1.2.3 length=60.6552 units=m spacing=3PH_HORIZ_LG_1C_3 wires="AL_1/0_7STR AL_1/0_7STR AL_1/0_7STR ACSR_1/0_6/1" Seasons=1 Ratings=[400,] normamps=216 emergamps=216
New "Line.tyn201_z_6_053_abc65031" phases=3 bus1=1001176.1.2.3 bus2=65031.1.2.3 length=112.4712 units=m spacing=3PH_HORIZ_LG_1C_3 wires="ACSR_1/0_6/1 ACSR_1/0_6/1 ACSR_1/0_6/1 ACSR_1/0_6/1" Seasons=1 Ratings=[400,] normamps=255 emergamps=255
New "Line.tyn201_z_6_080_abc53761" phases=3 bus1=80853.1.2.3 bus2=53761.1.2.3 length=68.58 units=m spacing=3PH_HORIZ_LG_1C_3 wires="AL_1/0_7STR AL_1/0_7STR AL_1/0_7STR ACSR_1/0_6/1" Seasons=1 Ratings=[400,] normamps=216 emergamps=216
New "Line.tyn201_z_6_082_abc80853" phases=3 bus1=80859.1.2.3 bus2=80853.1.2.3 length=63.7032 units=m spacing=3PH_HORIZ_LG_1C_3 wires="AL_1/0_7STR AL_1/0_7STR AL_1/0_7STR ACSR_1/0_6/1" Seasons=1 Ratings=[400,] normamps=216 emergamps=216
New "Line.tyn201_z_6_139_abc23210" phases=3 bus1=41246.1.2.3 bus2=23210.1.2.3 length=100.584 units=m spacing=3PH_HORIZ_LG_1C_3 wires="AL_1/0_7STR AL_1/0_7STR AL_1/0_7STR ACSR_1/0_6/1" Seasons=1 Ratings=[400,] normamps=216 emergamps=216
New "Line.tyn201_z_6_152_abc64959" phases=3 bus1=64961.1.2.3 bus2=64959.1.2.3 length=11.2776 units=m spacing=3PH_HORIZ_LG_1C_3 wires="AL_336_19STR AL_336_19STR AL_336_19STR ACSR_1/0_6/1" Seasons=1 Ratings=[400,] normamps=448 emergamps=448
New "Line.tyn201_z_6_153_a80870" phases=1 bus1=1093900.1 bus2=80870.1 length=82.9056 units=m spacing=1PH_1 wires="CU_#6_1STR ACSR_1/0_6/1" Seasons=1 Ratings=[400,] normamps=112 emergamps=112
...

New "Load.tyn201_1006136elb-1_0" phases=1 bus1=1006136.3 kV=7.19955785679 kW=6.284651 kvar=2.185945 class=1
New "Load.tyn201_1008237elb-1_0" phases=1 bus1=1008237.1 kV=7.19955785679 kW=8.349628 kvar=4.089023 class=1
New "Load.tyn201_1093788elb-1_0" phases=1 bus1=1093788.3 kV=7.19955785679 kW=1.21669 kvar=0.423193 class=1
New "Load.tyn201_1093788elb-1_1" phases=1 bus1=1093788.3 kV=7.19955785679 kW=0.345457 kvar=0.120158 class=1
New "Load.tyn201_1093788elb-1_10" phases=1 bus1=1093788.3 kV=7.19955785679 kW=2.173339 kvar=0.755937 class=1
New "Load.tyn201_1093788elb-1_11" phases=1 bus1=1093788.3 kV=7.19955785679 kW=1.444464 kvar=0.502418 class=1
New "Load.tyn201_1093788elb-1_12" phases=1 bus1=1093788.3 kV=7.19955785679 kW=1.61909 kvar=0.563157 class=1
New "Load.tyn201_1093788elb-1_13" phases=1 bus1=1093788.3 kV=7.19955785679 kW=3.644377 kvar=1.267597 class=1
New "Load.tyn201_1093788elb-1_14" phases=1 bus1=1093788.3 kV=7.19955785679 kW=3.323595 kvar=1.156022 class=1
New "Load.tyn201_1093788elb-1_15" phases=1 bus1=1093788.3 kV=7.19955785679 kW=2.570045 kvar=0.89392 class=1
New "Load.tyn201_1093788elb-1_16" phases=1 bus1=1093788.3 kV=7.19955785679 kW=2.22269 kvar=0.773102 class=1
New "Load.tyn201_1093788elb-1_17" phases=1 bus1=1093788.3 kV=7.19955785679 kW=2.919297 kvar=1.015398 class=1
New "Load.tyn201_1093788elb-1_18" phases=1 bus1=1093788.3 kV=7.19955785679 kW=2.511203 kvar=0.873454 class=1
New "Load.tyn201_1093788elb-1_19" phases=1 bus1=1093788.3 kV=7.19955785679 kW=2.581433 kvar=0.897882 class=1
New "Load.tyn201_1093788elb-1_2" phases=1 bus1=1093788.3 kV=7.19955785679 kW=1.676034 kvar=0.582963 class=1
New "Load.tyn201_1093788elb-1_20" phases=1 bus1=1093788.3 kV=7.19955785679 kW=3.915807 kvar=1.362007 class=1
New "Load.tyn201_1093788elb-1_21" phases=1 bus1=1093788.3 kV=7.19955785679 kW=2.478935 kvar=0.86223 class=1
New "Load.tyn201_1093788elb-1_22" phases=1 bus1=1093788.3 kV=7.19955785679 kW=3.010407 kvar=1.047088 class=1
New "Load.tyn201_1093788elb-1_23" phases=1 bus1=1093788.3 kV=7.19955785679 kW=2.029083 kvar=0.705761 class=1
New "Load.tyn201_1093788elb-1_24" phases=1 bus1=1093788.3 kV=7.19955785679 kW=1.994917 kvar=0.693878 class=1
New "Load.tyn201_1093788elb-1_25" phases=1 bus1=1093788.3 kV=7.19955785679 kW=1.905705 kvar=0.662848 class=1
New "Load.tyn201_1093788elb-1_26" phases=1 bus1=1093788.3 kV=7.19955785679 kW=0.421381 kvar=0.146566 class=2
New "Load.tyn201_1093788elb-1_27" phases=1 bus1=1093788.3 kV=7.19955785679 kW=2.344169 kvar=0.815356 class=1
New "Load.tyn201_1093788elb-1_28" phases=1 bus1=1093788.3 kV=7.19955785679 kW=2.370743 kvar=0.824599 class=1
New "Load.tyn201_1093788elb-1_29" phases=1 bus1=1093788.3 kV=7.19955785679 kW=0.400502 kvar=0.139304 class=2
New "Load.tyn201_1093788elb-1_3" phases=1 bus1=1093788.3 kV=7.19955785679 kW=1.818392 kvar=0.632478 class=1
New "Load.tyn201_1093788elb-1_4" phases=1 bus1=1093788.3 kV=7.19955785679 kW=1.188219 kvar=0.41329 class=1
New "Load.tyn201_1093788elb-1_5" phases=1 bus1=1093788.3 kV=7.19955785679 kW=2.245467 kvar=0.781025 class=1
New "Load.tyn201_1093788elb-1_6" phases=1 bus1=1093788.3 kV=7.19955785679 kW=4.010712 kvar=1.395017 class=1
New "Load.tyn201_1093788elb-1_7" phases=1 bus1=1093788.3 kV=7.19955785679 kW=2.750365 kvar=0.95664 class=1
New "Load.tyn201_1093788elb-1_8" phases=1 bus1=1093788.3 kV=7.19955785679 kW=0.484019 kvar=0.168353 class=1
New "Load.tyn201_1093788elb-1_9" phases=1 bus1=1093788.3 kV=7.19955785679 kW=1.163543 kvar=0.404707 class=1
New "Load.tyn201_1093789elb-1_0" phases=1 bus1=1093789.3 kV=7.19955785679 kW=3.107211 kvar=1.080759 class=1
New "Load.tyn201_1093789elb-1_1" phases=1 bus1=1093789.3 kV=7.19955785679 kW=3.558961 kvar=1.237888 class=1
New "Load.tyn201_1093789elb-1_10" phases=1 bus1=1093789.3 kV=7.19955785679 kW=1.99112 kvar=0.692557 class=1
New "Load.tyn201_1093789elb-1_11" phases=1 bus1=1093789.3 kV=7.19955785679 kW=1.362845 kvar=0.474029 class=1
New "Load.tyn201_1093789elb-1_12" phases=1 bus1=1093789.3 kV=7.19955785679 kW=0.320781 kvar=0.111575 class=2
New "Load.tyn201_1093789elb-1_13" phases=1 bus1=1093789.3 kV=7.19955785679 kW=3.974648 kvar=1.382473 class=1
New "Load.tyn201_1093789elb-1_2" phases=1 bus1=1093789.3 kV=7.19955785679 kW=1.042064 kvar=0.362454 class=1
New "Load.tyn201_1093789elb-1_3" phases=1 bus1=1093789.3 kV=7.19955785679 kW=0.258143 kvar=0.089788 class=2
New "Load.tyn201_1093789elb-1_4" phases=1 bus1=1093789.3 kV=7.19955785679 kW=3.152765 kvar=1.096604 class=1
New "Load.tyn201_1093789elb-1_5" phases=1 bus1=1093789.3 kV=7.19955785679 kW=1.131275 kvar=0.393483 class=1
New "Load.tyn201_1093789elb-1_6" phases=1 bus1=1093789.3 kV=7.19955785679 kW=2.76555 kvar=0.961922 class=1
New "Load.tyn201_1093789elb-1_7" phases=1 bus1=1093789.3 kV=7.19955785679 kW=2.036675 kvar=0.708402 class=1
New "Load.tyn201_1093789elb-1_8" phases=1 bus1=1093789.3 kV=7.19955785679 kW=2.621294 kvar=0.911746 class=1
New "Load.tyn201_1093789elb-1_9" phases=1 bus1=1093789.3 kV=7.19955785679 kW=2.909807 kvar=1.012097 class=1
New "Load.tyn201_1093880elb-1_0" phases=1 bus1=1093880.2 kV=7.19955785679 kW=4.592151 kvar=1.774988 class=1
New "Load.tyn201_1143070elb-1_0" phases=1 bus1=1143070.3 kV=7.19955785679 kW=3.111007 kvar=1.082079 class=1
New "Load.tyn201_1143075fuse-1_0" phases=1 bus1=1143075.3 kV=7.19955785679 kW=3.105313 kvar=1.080099 class=1
New "Load.tyn201_1143075fuse-1_1" phases=1 bus1=1143075.3 kV=7.19955785679 kW=9.490564 kvar=3.301035 class=1
New "Load.tyn201_1143075fuse-1_2" phases=1 bus1=1143075.3 kV=7.19955785679 kW=5.005323 kvar=1.740966 class=1
New "Load.tyn201_1143076fuse-1_0" phases=1 bus1=1143076.1 kV=7.19955785679 kW=3.860725 kvar=1.890694 class=1
New "Load.tyn201_1143076fuse-1_1" phases=1 bus1=1143076.1 kV=7.19955785679 kW=5.021615 kvar=2.459211 class=1
New "Load.tyn201_1143187fuse-1_0" phases=1 bus1=1143187.2 kV=7.19955785679 kW=3.929602 kvar=1.518895 class=1
New "Load.tyn201_1143187fuse-1_1" phases=1 bus1=1143187.2 kV=7.19955785679 kW=4.607383 kvar=1.780875 class=1
New "Load.tyn201_1143187fuse-1_2" phases=1 bus1=1143187.2 kV=7.19955785679 kW=3.882005 kvar=1.500497 class=1
New "Load.tyn201_1149742elb-1_0" phases=1 bus1=1149742.2 kV=7.19955785679 kW=5.216623 kvar=2.016362 class=1
New "Load.tyn201_1151766elb-1_0" phases=1 bus1=1151766.1 kV=7.19955785679 kW=13.938323 kvar=6.825948 class=3
New "Load.tyn201_1151766elb-1_1" phases=1 bus1=1151766.2 kV=7.19955785679 kW=13.898303 kvar=5.37206 class=3
New "Load.tyn201_1151766elb-1_2" phases=1 bus1=1151766.3 kV=7.19955785679 kW=13.856223 kvar=4.819511 class=3
New "Load.tyn201_1151767elb-1_0" phases=1 bus1=1151767.1 kV=7.19955785679 kW=0.253945 kvar=0.124363 class=2
New "Load.tyn201_1151767elb-1_1" phases=1 bus1=1151767.2 kV=7.19955785679 kW=0.253216 kvar=0.097875 class=2
New "Load.tyn201_1151767elb-1_2" phases=1 bus1=1151767.3 kV=7.19955785679 kW=0.252449 kvar=0.087808 class=2
New "Load.tyn201_1172768elb-1_0" phases=1 bus1=1172768.1 kV=7.19955785679 kW=1.951365 kvar=0.955633 class=1
New "Load.tyn201_1172768elb-1_1" phases=1 bus1=1172768.1 kV=7.19955785679 kW=4.252143 kvar=2.082382 class=1
New "Load.tyn201_1172768elb-1_10" phases=1 bus1=1172768.1 kV=7.19955785679 kW=1.603862 kvar=0.785452 class=1
New "Load.tyn201_1172768elb-1_11" phases=1 bus1=1172768.1 kV=7.19955785679 kW=0.882124 kvar=0.431998 class=1
New "Load.tyn201_1172768elb-1_12" phases=1 bus1=1172768.1 kV=7.19955785679 kW=1.411017 kvar=0.69101 class=1
New "Load.tyn201_1172768elb-1_13" phases=1 bus1=1172768.1 kV=7.19955785679 kW=2.388609 kvar=1.169762 class=1
New "Load.tyn201_1172768elb-1_14" phases=1 bus1=1172768.1 kV=7.19955785679 kW=2.218676 kvar=1.086541 class=1
New "Load.tyn201_1172768elb-1_15" phases=1 bus1=1172768.1 kV=7.19955785679 kW=0.870668 kvar=0.426388 class=2
New "Load.tyn201_1172768elb-1_16" phases=1 bus1=1172768.1 kV=7.19955785679 kW=0.486887 kvar=0.238441 class=1
New "Load.tyn201_1172768elb-1_17" phases=1 bus1=1172768.1 kV=7.19955785679 kW=1.059694 kvar=0.518959 class=1
New "Load.tyn201_1172768elb-1_18" phases=1 bus1=1172768.1 kV=7.19955785679 kW=2.459255 kvar=1.204359 class=1
New "Load.tyn201_1172768elb-1_19" phases=1 bus1=1172768.1 kV=7.19955785679 kW=2.071655 kvar=1.014542 class=1
New "Load.tyn201_1172768elb-1_2" phases=1 bus1=1172768.1 kV=7.19955785679 kW=1.437748 kvar=0.704101 class=1
New "Load.tyn201_1172768elb-1_20" phases=1 bus1=1172768.1 kV=7.19955785679 kW=1.04442 kvar=0.511479 class=1
New "Load.tyn201_1172768elb-1_21" phases=1 bus1=1172768.1 kV=7.19955785679 kW=2.485986 kvar=1.21745 class=1
New "Load.tyn201_1172768elb-1_22" phases=1 bus1=1172768.1 kV=7.19955785679 kW=1.953275 kvar=0.956568 class=1
New "Load.tyn201_1172768elb-1_23" phases=1 bus1=1172768.1 kV=7.19955785679 kW=2.209129 kvar=1.081866 class=1
New "Load.tyn201_1172768elb-1_24" phases=1 bus1=1172768.1 kV=7.19955785679 kW=2.909864 kvar=1.425034 class=1
New "Load.tyn201_1172768elb-1_3" phases=1 bus1=1172768.1 kV=7.19955785679 kW=0.971864 kvar=0.475946 class=1
New "Load.tyn201_1172768elb-1_4" phases=1 bus1=1172768.1 kV=7.19955785679 kW=2.333237 kvar=1.142645 class=1
New "Load.tyn201_1172768elb-1_5" phases=1 bus1=1172768.1 kV=7.19955785679 kW=3.698429 kvar=1.811214 class=1
New "Load.tyn201_1172768elb-1_6" phases=1 bus1=1172768.1 kV=7.19955785679 kW=0.643454 kvar=0.315116 class=1
New "Load.tyn201_1172768elb-1_7" phases=1 bus1=1172768.1 kV=7.19955785679 kW=2.548995 kvar=1.248307 class=1
New "Load.tyn201_1172768elb-1_8" phases=1 bus1=1172768.1 kV=7.19955785679 kW=2.02774 kvar=0.993035 class=1
New "Load.tyn201_1172768elb-1_9" phases=1 bus1=1172768.1 kV=7.19955785679 kW=2.56236 kvar=1.254852 class=1
New "Load.tyn201_1177399elb-1_0" phases=1 bus1=1177399.1 kV=7.19955785679 kW=6.971071 kvar=3.413909 class=1
New "Load.tyn201_1177399elb-1_1" phases=1 bus1=1177399.1 kV=7.19955785679 kW=5.913286 kvar=2.895885 class=1
New "Load.tyn201_1177399elb-1_2" phases=1 bus1=1177399.1 kV=7.19955785679 kW=6.757223 kvar=3.309182 class=1
New "Load.tyn201_1177399elb-1_3" phases=1 bus1=1177399.1 kV=7.19955785679 kW=3.631601 kvar=1.778487 class=1
New "Load.tyn201_1177400elb-1_0" phases=1 bus1=1177400.1 kV=7.19955785679 kW=1.939909 kvar=0.950022 class=1
New "Load.tyn201_1177400elb-1_1" phases=1 bus1=1177400.1 kV=7.19955785679 kW=3.509402 kvar=1.718643 class=1
New "Load.tyn201_1177401elb-1_0" phases=1 bus1=1177401.1 kV=7.19955785679 kW=3.826356 kvar=1.873863 class=1
New "Load.tyn201_1177405elb-1_0" phases=1 bus1=1177405.3 kV=7.19955785679 kW=3.868354 kvar=1.345502 class=1
New "Load.tyn201_1177407elb-1_0" phases=1 bus1=1177407.3 kV=7.19955785679 kW=3.171746 kvar=1.103206 class=1
New "Load.tyn201_1177408elb-1_0" phases=1 bus1=1177408.3 kV=7.19955785679 kW=4.997731 kvar=1.738325 class=1
New "Load.tyn201_1177408elb-1_1" phases=1 bus1=1177408.3 kV=7.19955785679 kW=5.794938 kvar=2.015612 class=1
New "Load.tyn201_1177416elb-1_0" phases=1 bus1=1177416.2 kV=7.19955785679 kW=3.611655 kvar=1.396 class=1
New "Load.tyn201_1177422elb-1_0" phases=1 bus1=1177422.1 kV=7.19955785679 kW=2.91941 kvar=1.429709 class=1
New "Load.tyn201_1177422elb-1_1" phases=1 bus1=1177422.1 kV=7.19955785679 kW=6.470819 kvar=3.168923 class=1
New "Load.tyn201_1177428elb-1_0" phases=1 bus1=1177428.2 kV=7.19955785679 kW=2.745391 kvar=1.061166 class=1
New "Load.tyn201_1177428elb-1_1" phases=1 bus1=1177428.2 kV=7.19955785679 kW=1.55166 kvar=0.599757 class=1
New "Load.tyn201_1177448elb-1_0" phases=1 bus1=1177448.2 kV=7.19955785679 kW=0.12756 kvar=0.049305 class=3
New "Load.tyn201_1177465elb-1_0" phases=1 bus1=1177465.1 kV=7.19955785679 kW=3.341379 kvar=1.636357 class=1
New "Load.tyn201_1179812elb-1_0" phases=1 bus1=1179812.1 kV=7.19955785679 kW=0.145111 kvar=0.071065 class=2
New "Load.tyn201_1179812elb-1_1" phases=1 bus1=1179812.1 kV=7.19955785679 kW=2.991966 kvar=1.465241 class=1
New "Load.tyn201_1179812elb-1_2" phases=1 bus1=1179812.1 kV=7.19955785679 kW=0.055371 kvar=0.027117 class=2
New "Load.tyn201_1179812elb-1_3" phases=1 bus1=1179812.1 kV=7.19955785679 kW=1.244902 kvar=0.60966 class=1
New "Load.tyn201_1179812elb-1_4" phases=1 bus1=1179812.1 kV=7.19955785679 kW=1.517941 kvar=0.743374 class=1
New "Load.tyn201_1179812elb-1_5" phases=1 bus1=1179812.1 kV=7.19955785679 kW=2.965235 kvar=1.45215 class=1
New "Load.tyn201_1179812elb-1_6" phases=1 bus1=1179812.1 kV=7.19955785679 kW=1.823438 kvar=0.892984 class=1
New "Load.tyn201_1182871elb-1_0" phases=1 bus1=1182871.1 kV=7.19955785679 kW=19.399091 kvar=9.500224 class=3
New "Load.tyn201_1187360elb-1_0" phases=1 bus1=1187360.1 kV=7.19955785679 kW=145.518003 kvar=71.263833 class=3
New "Load.tyn201_1187360elb-1_1" phases=1 bus1=1187360.2 kV=7.19955785679 kW=145.100183 kvar=56.085045 class=3
New "Load.tyn201_1187360elb-1_2" phases=1 bus1=1187360.3 kV=7.19955785679 kW=144.660869 kvar=50.316355 class=3
New "Load.tyn201_1187481elb-1_0" phases=1 bus1=1187481.3 kV=7.19955785679 kW=2.002509 kvar=0.696518 class=1
New "Load.tyn201_1187481elb-1_1" phases=1 bus1=1187481.3 kV=7.19955785679 kW=2.587128 kvar=0.899862 class=1
New "Load.tyn201_1187481elb-1_10" phases=1 bus1=1187481.3 kV=7.19955785679 kW=0.854151 kvar=0.297093 class=1
...